This project is a custom implementation developed by Junhyeok Park (2023-2026).
It is built upon the GPGPU-Sim framework

------------------------------------------------------------------------------
1. PRIMARY LICENSE: BSD 3-Clause
------------------------------------------------------------------------------
Copyright (c) 2023-2026 Junhyeok Park.
All rights reserved.

Redistribution and use in source and binary forms, with or without
modification, are permitted provided that the following conditions are met:

1. Redistributions of source code must retain the above copyright notice, this
   list of conditions and the following disclaimer.

2. Redistributions in binary form must reproduce the above copyright notice,
   this list of conditions and the following disclaimer in the documentation
   and/or other materials provided with the distribution.

3. Neither the name of the copyright holder nor the names of its
   contributors may be used to endorse or promote products derived from
   this software without specific prior written permission.

THIS SOFTWARE IS PROVIDED BY THE COPYRIGHT HOLDERS AND CONTRIBUTORS "AS IS"
AND ANY EXPRESS OR IMPLIED WARRANTIES, INCLUDING, BUT NOT LIMITED TO, THE
IMPLIED WARRANTIES OF MERCHANTABILITY AND FITNESS FOR A PARTICULAR PURPOSE ARE
DISCLAIMED. IN NO EVENT SHALL THE COPYRIGHT HOLDER OR CONTRIBUTORS BE LIABLE
FOR ANY DIRECT, INDIRECT, INCIDENTAL, SPECIAL, EXEMPLARY, OR CONSEQUENTIAL
DAMAGES (INCLUDING, BUT NOT LIMITED TO, PROCUREMENT OF SUBSTITUTE GOODS OR
SERVICES; LOSS OF USE, DATA, OR PROFITS; OR BUSINESS INTERRUPTION) HOWEVER
CAUSED AND ON ANY THEORY OF LIABILITY, WHETHER IN CONTRACT, STRICT LIABILITY,
OR TORT (INCLUDING NEGLIGENCE OR OTHERWISE) ARISING IN ANY WAY OUT OF THE USE
OF THIS SOFTWARE, EVEN IF ADVISED OF THE POSSIBILITY OF SUCH DAMAGE.

------------------------------------------------------------------------------
2. BASE FRAMEWORK: GPGPU-Sim
------------------------------------------------------------------------------
Copyright (c) 2009-2011
Tor M. Aamodt and The University of British Columbia (UBC)
All rights reserved.

Redistribution and use in source and binary forms, with or without
modification, are permitted provided that the following conditions are met:

Redistributions of source code must retain the above copyright notice, this
list of conditions and the following disclaimer.
Redistributions in binary form must reproduce the above copyright notice, this
list of conditions and the following disclaimer in the documentation and/or
other materials provided with the distribution.
Neither the name of the copyright holders nor the names of its
contributors may be used to endorse or promote products derived from this
software without specific prior written permission.

THIS SOFTWARE IS PROVIDED BY THE COPYRIGHT HOLDERS AND CONTRIBUTORS "AS IS" AND
ANY EXPRESS OR IMPLIED WARRANTIES, INCLUDING, BUT NOT LIMITED TO, THE IMPLIED
WARRANTIES OF MERCHANTABILITY AND FITNESS FOR A PARTICULAR PURPOSE ARE
DISCLAIMED. IN NO EVENT SHALL THE COPYRIGHT HOLDER OR CONTRIBUTORS BE LIABLE
FOR ANY DIRECT, INDIRECT, INCIDENTAL, SPECIAL, EXEMPLARY, OR CONSEQUENTIAL
DAMAGES (INCLUDING, BUT NOT LIMITED TO, PROCUREMENT OF SUBSTITUTE GOODS OR
SERVICES; LOSS OF USE, DATA, OR PROFITS; OR BUSINESS INTERRUPTION) HOWEVER
CAUSED AND ON ANY THEORY OF LIABILITY, WHETHER IN CONTRACT, STRICT LIABILITY,
OR TORT (INCLUDING NEGLIGENCE OR OTHERWISE) ARISING IN ANY WAY OUT OF THE USE
OF THIS SOFTWARE, EVEN IF ADVISED OF THE POSSIBILITY OF SUCH DAMAGE.


NOTE 1: The files libcuda/cuda_runtime_api.cc and src/cuda-sim/cuda-math.h are
derived from the CUDA Toolset available from http://www.nvidia.com/cuda
(property of NVIDIA).  The files from src/intersim/ are derived from Booksim (a
simulator provided with the textbook "Principles and Practices of
Interconnection Networks" available from http://cva.stanford.edu/books/ppin/).
The files from src/cuda-sim/decuda_pred_table/ are derived from decuda 
(https://github.com/laanwj/decuda/wiki). 
As such, those files are bound by the corresponding legal terms and conditions
set forth separately (original copyright notices are left in files from these
sources and where we have modified a file our copyright notice appears before
the original copyright notice).

NOTE 2: Various UBC graduate students have contributed to different files in
this distribution.  As copyright ownership at UBC is held by the authors (as
per UBC policy 88, item 2.3 on literary works) these students names appear in
the copyright notices of the respective files. UBC is also mentioned in the 
copyright notice to highlight that was the author's affiliation when the work 
was performed.

NOTE 3: AccelWattch and all its components are covered by the following license and copyright.
Copyright (c) 2018-2021, Vijay Kandiah, Junrui Pan, Mahmoud Khairy, Scott Peverelle, Timothy Rogers, Tor M. Aamodt, Nikos Hardavellas
Northwestern University, Purdue University, The University of British Columbia
All rights reserved.

Redistribution and use in source and binary forms, with or without
modification, are permitted provided that the following conditions are met:

1. Redistributions of source code must retain the above copyright notice, this
   list of conditions and the following disclaimer;
2. Redistributions in binary form must reproduce the above copyright notice,
   this list of conditions and the following disclaimer in the documentation
   and/or other materials provided with the distribution;
3. Neither the names of Northwestern University, Purdue University,
   The University of British Columbia nor the names of their contributors
   may be used to endorse or promote products derived from this software
   without specific prior written permission.

THIS SOFTWARE IS PROVIDED BY THE COPYRIGHT HOLDERS AND CONTRIBUTORS "AS IS"
AND ANY EXPRESS OR IMPLIED WARRANTIES, INCLUDING, BUT NOT LIMITED TO, THE
IMPLIED WARRANTIES OF MERCHANTABILITY AND FITNESS FOR A PARTICULAR PURPOSE
ARE DISCLAIMED. IN NO EVENT SHALL THE COPYRIGHT HOLDER OR CONTRIBUTORS BE
LIABLE FOR ANY DIRECT, INDIRECT, INCIDENTAL, SPECIAL, EXEMPLARY, OR
CONSEQUENTIAL DAMAGES (INCLUDING, BUT NOT LIMITED TO, PROCUREMENT OF
SUBSTITUTE GOODS OR SERVICES; LOSS OF USE, DATA, OR PROFITS; OR BUSINESS
INTERRUPTION) HOWEVER CAUSED AND ON ANY THEORY OF LIABILITY, WHETHER IN
CONTRACT, STRICT LIABILITY, OR TORT (INCLUDING NEGLIGENCE OR OTHERWISE)
ARISING IN ANY WAY OUT OF THE USE OF THIS SOFTWARE, EVEN IF ADVISED OF THE
POSSIBILITY OF SUCH DAMAGE.

------------------------------------------------------------------------------
3. RESEARCH REFERENCE: DWS (HPCA'21) (IISc)
------------------------------------------------------------------------------
Copyright (c) 2020 Indian Institute of Science
All rights reserved.

Permission is hereby granted, free of charge, to any person obtaining a copy
of this software and associated documentation files (the "Software"), to deal
in the Software without restriction, including without limitation the rights
to use, copy, modify, merge, publish, distribute, sublicense, and/or sell
copies of the Software, and to permit persons to whom the Software is
furnished to do so, subject to the following conditions:

1. Redistributions of source code must retain the above copyright notice,
   this list of conditions and the following disclaimers.
2. Redistributions in binary form must reproduce the above copyright notice,
   this list of conditions and the following disclaimers in the documentation
   and/or other materials provided with the distribution.
3. Neither the names of Computer Systems Lab, Indian Institute of Science,
   nor the names of its contributors may be used to endorse or promote
   products derived from this Software without specific prior written permission.

THE SOFTWARE IS PROVIDED "AS IS", WITHOUT WARRANTY OF ANY KIND, EXPRESS OR
IMPLIED, INCLUDING BUT NOT LIMITED TO THE WARRANTIES OF MERCHANTABILITY,
FITNESS FOR A PARTICULAR PURPOSE AND NONINFRINGEMENT. IN NO EVENT SHALL THE
CONTRIBUTORS OR COPYRIGHT HOLDERS BE LIABLE FOR ANY CLAIM, DAMAGES OR OTHER
LIABILITY, WHETHER IN AN ACTION OF CONTRACT, TORT OR OTHERWISE, ARISING FROM,
OUT OF OR IN CONNECTION WITH THE SOFTWARE OR THE USE OR OTHER DEALINGS WITH
THE SOFTWARE.

------------------------------------------------------------------------------
4. RESEARCH REFERENCE: Mosaic (CMU SAFARI / MICRO'17), MASK (CMU SAFARI / ASPLOS'18)
------------------------------------------------------------------------------
This project references the source code and logic from the following projects
by CMU SAFARI:

1. "Mosaic: A GPU Memory Manager with Application-Transparent Support for
   Multiple Page Sizes" (MICRO'17).
2. "MASK: Redesigning the GPU Memory Hierarchy to Support Virtual Memory"
   (ASPLOS'18).

Note: As the original source did not provide a formal license file, these
references are provided for academic attribution and transparency.
==============================================================================